12
	Energy:      10.5736998
C         -2.09726        2.41992        0.00000
C         -0.69947        2.47902       -0.00000
C          0.05061        1.29805       -0.00000
C         -0.59710        0.05797       -0.00000
C         -1.99490       -0.00113        0.00000
C         -2.74498        1.17984        0.00000
H         -0.19838        3.43838       -0.00000
H          1.13198        1.34377       -0.00000
H         -0.01682       -0.85566       -0.00000
H         -2.49598       -0.96049        0.00000
H         -3.82635        1.13412        0.00000
H         -2.67755        3.33356        0.00000
